***** HSPICE -- F-2011.09 32-BIT (Sep  5 2011) winnt ******
 Input File: test.sp
 lic:
 lic: FLEXlm: v10.8
 lic: USER:   86184                HOSTNAME: PC2line
 lic: HOSTID: "e86a64c8f38a 00ffca7bfa5a 485f9955e58d 4a5f9955e58d ca5f9955e58d"
 lic: Using FLEXlm license file:
 lic: D:\HSPICE\license1.dat
 lic: Checkout 1 hspice
 lic: License/Maintenance for hspice will expire on 31-dec-2030/2030.12
 lic: NODE LOCKED license on hostid "e86a64c8f38a 00ffca7bfa5a 485f9955e58d 4a5f
 lic:
 init: begin read circuit files,  cpu clock=  7.89E-01
       option search   = D:\HSPICE\hspice\PARTS\behave\
       option search   = D:\HSPICE\hspice\PARTS\behave\
       option search   = D:\HSPICE\hspice\PARTS\AD\
       option search   = D:\HSPICE\hspice\PARTS\XILINX\
       option search   = D:\HSPICE\hspice\PARTS\TLINE\
       option search   = D:\HSPICE\hspice\PARTS\TI\
       option search   = D:\HSPICE\hspice\PARTS\SIGNET\
       option search   = D:\HSPICE\hspice\PARTS\PCI\
       option search   = D:\HSPICE\hspice\PARTS\LIN_TECH\
       option search   = D:\HSPICE\hspice\PARTS\FET\
       option search   = D:\HSPICE\hspice\PARTS\DIO\
       option search   = D:\HSPICE\hspice\PARTS\COMLINE\
       option search   = D:\HSPICE\hspice\PARTS\BURR_BRN\
       option search   = D:\HSPICE\hspice\PARTS\BJT\
       option search   = D:\HSPICE\hspice\PARTS\behave\
       option search   = D:\HSPICE\hspice\PARTS\AD\
       option post     =     2.00
       option runlvl
       option post
       option accura
       option probe
 init: end read circuit files,  cpu clock=  8.43E-01 memory=    150 kb
 init: begin check errors,  cpu clock=  8.43E-01
 init: end check errors,  cpu clock=  8.52E-01 memory=    150 kb
 init: begin setup matrix, pivot=     0 cpu clock=  8.52E-01
       establish matrix -- done,  cpu clock=  8.62E-01 memory=    152 kb
       re-order matrix -- done,  cpu clock=  8.65E-01 memory=    153 kb
 init: end setup matrix,  cpu clock=  8.68E-01 memory=    164 kb
 dcop: begin dcop,  cpu clock=  8.71E-01
 dcop: end dcop,  cpu clock=  8.77E-01 memory=    164 kb  tot_iter=       7
 output: test.tr0
 sweep: tran tran0    begin, stop_t=  1.00E-02 #sweeps=**** cpu clock=  8.85E-01
 tran: time= 1.4192E-03 tot_iter=      30 conv_iter=      15 cpu clock= 8.96E-01
 tran: time= 2.4192E-03 tot_iter=      34 conv_iter=      17 cpu clock= 9.08E-01
 tran: time= 3.4192E-03 tot_iter=      38 conv_iter=      19 cpu clock= 9.17E-01
 tran: time= 4.4192E-03 tot_iter=      42 conv_iter=      21 cpu clock= 9.30E-01
 tran: time= 5.4192E-03 tot_iter=      46 conv_iter=      23 cpu clock= 9.40E-01
 tran: time= 6.4192E-03 tot_iter=      50 conv_iter=      25 cpu clock= 9.50E-01
 tran: time= 7.4192E-03 tot_iter=      54 conv_iter=      27 cpu clock= 9.61E-01
 tran: time= 8.4192E-03 tot_iter=      58 conv_iter=      29 cpu clock= 9.74E-01
 tran: time= 9.4192E-03 tot_iter=      62 conv_iter=      31 cpu clock= 9.84E-01
 tran: time= 1.0000E-02 tot_iter=      66 conv_iter=      33 cpu clock= 9.94E-01
 sweep: tran tran0    end,  cpu clock=  1.00E+00 memory=    164 kb
>info:         ***** hspice job concluded
 lic: Release hspice token(s)
